@<TRIPOS>MOLECULE
LIG
   81    83     1     0     0
SMALL
bcc


@<TRIPOS>ATOM
      1 CAP         22.0580    45.6360    29.2870 c3       276 LIG       0.113100
      2 OAP         22.2490    45.3650    27.8900 oh       276 LIG      -0.655800
      3 CBP         20.6230    46.2150    29.5590 c3       276 LIG      -0.104000
      4 CDP         20.5100    46.7740    30.9940 c3       276 LIG      -0.101100
      5 CEP         20.2740    47.3340    28.5490 c3       276 LIG      -0.101100
      6 P1A         16.7840    41.7100    29.5940 p5       276 LIG       1.602800
      7 P2A         19.4140    42.5150    29.9310 p5       276 LIG       1.597800
      8 P3B         18.2310    44.6130    24.3130 p5       276 LIG       1.448800
      9 S1P         18.2090    51.6610    29.9330 sh       276 LIG      -0.548900
     10 C2P         19.7560    50.8050    30.3910 c3       276 LIG       0.011700
     11 C3P         21.0090    51.4790    29.8620 c3       276 LIG       0.096000
     12 N4P         22.1870    50.7540    30.1820 n        276 LIG      -0.547900
     13 C5P         23.0820    50.2570    29.1860 c        276 LIG       0.661100
     14 O5P         22.9150    50.3840    27.9670 o        276 LIG      -0.666100
     15 C6P         24.3090    49.5800    29.7870 c3       276 LIG      -0.173400
     16 C7P         24.8140    48.3630    29.0060 c3       276 LIG       0.119000
     17 N8P         23.7530    47.4480    28.7350 n        276 LIG      -0.571900
     18 C9P         23.2430    46.5340    29.7070 c        276 LIG       0.662100
     19 O9P         23.7030    46.4620    30.8540 o        276 LIG      -0.652100
     20 C1B         14.0540    44.5280    26.3970 c3       276 LIG       0.229800
     21 N1A         11.3500    48.6500    28.0990 nb       276 LIG      -0.804000
     22 O1A         16.1550    41.9030    30.9840 o        276 LIG      -0.868000
     23 C2A         12.1440    48.4990    27.0320 ca       276 LIG       0.623900
     24 C2B         15.4820    45.0710    26.6030 c3       276 LIG       0.095100
     25 O2A         17.2700    40.2480    29.4540 o        276 LIG      -0.868000
     26 O2B         15.6500    46.2850    25.8560 oh       276 LIG      -0.605800
     27 C3B         16.4310    43.9790    26.0520 c3       276 LIG       0.143100
     28 N3A         12.8300    47.4140    26.6620 nb       276 LIG      -0.701000
     29 O3A         17.9660    42.6820    29.4340 os       276 LIG      -0.822800
     30 O3B         16.7710    44.2560    24.6700 os       276 LIG      -0.594200
     31 C4A         12.6380    46.3500    27.5540 ca       276 LIG       0.425800
     32 C4B         15.5240    42.7370    26.1100 c3       276 LIG       0.111100
     33 O4A         19.4240    42.0810    31.4100 o        276 LIG      -0.870500
     34 O4B         14.1850    43.1040    26.4600 os       276 LIG      -0.410600
     35 C5A         11.8420    46.3730    28.6890 ca       276 LIG      -0.188200
     36 C5B         16.0810    41.7330    27.1190 c3       276 LIG       0.171400
     37 O5A         20.1180    41.4470    29.0970 o        276 LIG      -0.870500
     38 O5B         15.7490    42.0060    28.4860 os       276 LIG      -0.592200
     39 C6A         11.1650    47.6020    28.9640 ca       276 LIG       0.666200
     40 N6A         10.3680    47.7690    30.0210 nh       276 LIG      -0.920500
     41 O6A         20.2000    43.8130    29.7990 os       276 LIG      -0.602200
     42 N7A         11.8720    45.1740    29.3410 nc       276 LIG      -0.600100
     43 O7A         18.6010    45.9620    24.9460 oh       276 LIG      -0.787400
     44 C8A         12.6740    44.4290    28.6040 cd       276 LIG       0.488700
     45 O8A         19.1850    43.5200    24.8280 o        276 LIG      -0.842500
     46 N9A         13.1810    45.0760    27.4890 na       276 LIG      -0.255000
     47 O9A         18.3630    44.7200    22.7840 o        276 LIG      -0.842500
     48 CCP         19.6170    45.0590    29.4200 c3       276 LIG       0.199400
     49 H01         18.7620    45.8420    25.8850 ho       276 LIG       0.431000
     50 HN4         22.4030    50.5810    31.1640 hn       276 LIG       0.335500
     51 HN8         23.3390    47.4470    27.8030 hn       276 LIG       0.329500
     52 HO1         21.7720    44.5440    27.6480 ho       276 LIG       0.468000
     53 HO2A        14.8570    46.8500    25.9670 ho       276 LIG       0.424000
     54 HS1         17.1920    50.9110    30.2380 hs       276 LIG       0.370800
     55 H10         22.0740    44.7410    29.9080 h1       276 LIG       0.098700
     56 H21         19.8190    50.7440    31.4770 h1       276 LIG       0.077700
     57 H22         19.7190    49.7820    30.0160 h1       276 LIG       0.077700
     58 H1B         13.5980    44.8180    25.4510 h2       276 LIG       0.079700
     59 H31         20.9330    51.5850    28.7800 h1       276 LIG       0.059200
     60 H32         21.0800    52.4850    30.2760 h1       276 LIG       0.059200
     61 H2A         12.2430    49.3700    26.3840 h5       276 LIG       0.020100
     62 H2B         15.6860    45.2910    27.6510 h1       276 LIG       0.114700
     63 H3B         17.3720    43.8920    26.5960 h1       276 LIG       0.100700
     64 H4B         15.5030    42.2740    25.1230 h1       276 LIG       0.060700
     65 H61         25.1140    50.3110    29.8550 hc       276 LIG       0.077200
     66 H62         24.0740    49.2700    30.8050 hc       276 LIG       0.077200
     67 H71         25.2640    48.6900    28.0690 h1       276 LIG       0.028200
     68 H72         25.5950    47.8600    29.5760 h1       276 LIG       0.028200
     69 H8A         12.9160    43.3950    28.8510 h5       276 LIG       0.192800
     70 H121        18.7440    45.2580    30.0410 h1       276 LIG       0.038700
     71 H122        19.2680    45.0000    28.3890 h1       276 LIG       0.038700
     72 H131        21.2140    47.5970    31.1200 hc       276 LIG       0.041200
     73 H132        20.7410    45.9860    31.7110 hc       276 LIG       0.041200
     74 H133        19.4960    47.1350    31.1650 hc       276 LIG       0.041200
     75 H141        20.9880    48.1510    28.6500 hc       276 LIG       0.041200
     76 H142        19.2690    47.7040    28.7490 hc       276 LIG       0.041200
     77 H143        20.3190    46.9360    27.5350 hc       276 LIG       0.041200
     78 H51A        17.1660    41.7060    27.0220 h1       276 LIG       0.039200
     79 H52A        15.7130    40.7400    26.8620 h1       276 LIG       0.039200
     80 H61A         9.9070    48.6660    30.1760 hn       276 LIG       0.395300
     81 H62A        10.2190    47.0000    30.6740 hn       276 LIG       0.395300
@<TRIPOS>BOND
     1     1     2 1   
     2     1     3 1   
     3     1    18 1   
     4     1    55 1   
     5     2    52 1   
     6     3     4 1   
     7     3     5 1   
     8     3    48 1   
     9     4    72 1   
    10     4    73 1   
    11     4    74 1   
    12     5    75 1   
    13     5    76 1   
    14     5    77 1   
    15     6    22 1   
    16     6    25 1   
    17     6    29 1   
    18     6    38 1   
    19     7    29 1   
    20     7    33 1   
    21     7    37 1   
    22     7    41 1   
    23     8    30 1   
    24     8    43 1   
    25     8    45 1   
    26     8    47 1   
    27     9    10 1   
    28     9    54 1   
    29    10    11 1   
    30    10    56 1   
    31    10    57 1   
    32    11    12 1   
    33    11    59 1   
    34    11    60 1   
    35    12    13 1   
    36    12    50 1   
    37    13    14 2   
    38    13    15 1   
    39    15    16 1   
    40    15    65 1   
    41    15    66 1   
    42    16    17 1   
    43    16    67 1   
    44    16    68 1   
    45    17    18 1   
    46    17    51 1   
    47    18    19 2   
    48    20    24 1   
    49    20    34 1   
    50    20    46 1   
    51    20    58 1   
    52    21    23 ar  
    53    21    39 ar  
    54    23    28 ar  
    55    23    61 1   
    56    24    26 1   
    57    24    27 1   
    58    24    62 1   
    59    26    53 1   
    60    27    30 1   
    61    27    32 1   
    62    27    63 1   
    63    28    31 ar  
    64    31    35 ar  
    65    31    46 1   
    66    32    34 1   
    67    32    36 1   
    68    32    64 1   
    69    35    39 ar  
    70    35    42 1   
    71    36    38 1   
    72    36    78 1   
    73    36    79 1   
    74    39    40 1   
    75    40    80 1   
    76    40    81 1   
    77    41    48 1   
    78    42    44 2   
    79    43    49 1   
    80    44    46 1   
    81    44    69 1   
    82    48    70 1   
    83    48    71 1   
@<TRIPOS>SUBSTRUCTURE
     1 LIG         1 TEMP              0 ****  ****    0 ROOT
